Version 4
SHEET 1 2324 1828
WIRE -592 -320 -592 -352
WIRE -592 -288 -592 -320
WIRE -1184 -256 -1232 -256
WIRE -944 -256 -1184 -256
WIRE -720 -256 -944 -256
WIRE -704 -256 -720 -256
WIRE -464 -256 -480 -256
WIRE -400 -256 -464 -256
WIRE -272 -256 -400 -256
WIRE -128 -256 -192 -256
WIRE 32 -256 -128 -256
WIRE 128 -256 32 -256
WIRE 144 -256 128 -256
WIRE 256 -256 144 -256
WIRE 128 -224 128 -256
WIRE -304 -192 -464 -256
WIRE -1232 -176 -1232 -256
WIRE -784 -176 -720 -256
WIRE -784 -160 -784 -176
WIRE -304 -160 -304 -192
WIRE -128 -160 -128 -256
WIRE -1504 -144 -1504 -176
WIRE -1440 -144 -1504 -144
WIRE 32 -144 32 -176
WIRE 128 -144 128 -160
WIRE 128 -144 32 -144
WIRE 176 -144 128 -144
WIRE -1440 -112 -1440 -144
WIRE 32 -112 32 -144
WIRE -1504 -96 -1504 -144
WIRE -1232 0 -1232 -96
WIRE -784 0 -784 -96
WIRE -784 0 -1232 0
WIRE -656 0 -656 -160
WIRE -656 0 -784 0
WIRE -528 0 -528 -160
WIRE -528 0 -656 0
WIRE -304 0 -304 -96
WIRE -304 0 -528 0
WIRE -128 0 -128 -96
WIRE -128 0 -304 0
WIRE 32 0 32 -32
WIRE 32 0 -128 0
WIRE -1232 32 -1232 0
WIRE -1216 32 -1232 32
WIRE -1232 224 -1280 224
WIRE -1104 224 -1152 224
WIRE -736 272 -976 272
WIRE -1392 320 -1424 320
WIRE -1280 320 -1280 224
WIRE -1280 320 -1312 320
WIRE -1232 368 -1232 336
WIRE -976 368 -976 272
WIRE -928 368 -976 368
WIRE -1280 384 -1280 320
WIRE -1264 384 -1280 384
WIRE -736 384 -736 272
WIRE -736 384 -864 384
WIRE -624 384 -736 384
WIRE -416 384 -544 384
WIRE -1104 400 -1104 224
WIRE -1104 400 -1200 400
WIRE -928 400 -1104 400
WIRE -1280 416 -1312 416
WIRE -1264 416 -1280 416
WIRE -320 416 -368 416
WIRE -192 416 -240 416
WIRE -896 448 -896 416
WIRE 64 448 -128 448
WIRE -1280 464 -1280 416
WIRE -1232 464 -1232 432
WIRE -544 496 -864 496
WIRE -416 512 -416 384
WIRE -368 512 -368 416
WIRE -368 512 -416 512
WIRE -64 544 -64 512
WIRE -1488 560 -1552 560
WIRE -1392 560 -1488 560
WIRE -1312 560 -1312 416
WIRE -320 560 -320 528
WIRE -128 560 -128 448
WIRE -96 560 -128 560
WIRE -1552 576 -1552 560
WIRE -368 576 -368 512
WIRE -352 576 -368 576
WIRE 64 576 64 448
WIRE 64 576 -32 576
WIRE 240 576 64 576
WIRE -1280 592 -1280 544
WIRE -864 592 -864 496
WIRE -784 592 -864 592
WIRE -192 592 -192 416
WIRE -192 592 -288 592
WIRE -96 592 -192 592
WIRE -544 608 -544 496
WIRE -544 608 -720 608
WIRE -480 608 -544 608
WIRE -368 608 -400 608
WIRE -352 608 -368 608
WIRE -784 624 -864 624
WIRE -64 640 -64 608
WIRE -864 656 -864 624
WIRE -368 656 -368 608
WIRE -320 656 -320 624
WIRE -752 672 -752 640
WIRE -1552 688 -1552 656
WIRE -864 752 -864 736
WIRE -368 784 -368 736
FLAG -400 -256 OUTPUT
FLAG -944 -256 +VIN
FLAG -1184 -256 BAT
FLAG -592 -320 FB
FLAG -1232 32 0
FLAG -1504 -256 +5V
FLAG -1440 -112 0
FLAG -1504 -16 -5V
FLAG 144 -256 OUT
FLAG -864 752 0
FLAG -752 576 +5V
FLAG -896 352 +5V
FLAG -1232 336 +5V
FLAG -1280 592 0
FLAG -1552 688 0
FLAG -320 528 +5V
FLAG -368 784 0
FLAG -64 512 +5V
FLAG 240 576 FB
FLAG -1488 560 Vref
FLAG 176 -144 Vs
FLAG -1424 320 Vs
FLAG -1232 464 -5V
FLAG -896 448 -5V
FLAG -752 672 -5V
FLAG -320 656 -5V
FLAG -64 640 -5V
SYMBOL ind -288 -240 R270
WINDOW 0 32 56 VTop 2
WINDOW 3 5 56 VBottom 2
SYMATTR InstName L1
SYMATTR Value 33µ
SYMATTR SpiceLine Ipk=6.9 Rser=0.033 Rpar=3108.6 Cpar=0 mfg="Coilcraft" pn="MSS1210-333"
SYMBOL schottky -288 -96 R180
WINDOW 0 24 64 Left 2
WINDOW 3 24 0 Left 2
SYMATTR InstName D1
SYMATTR Value 1N5825
SYMBOL polcap -144 -160 R0
SYMATTR InstName Cout
SYMATTR Value 680µ
SYMATTR SpiceLine V=10 Irms=670m Rser=0.09 Lser=0 mfg="Nichicon" pn="UUD1A681MNL1GS" type="Al electrolytic"
SYMBOL polcap -800 -160 R0
SYMATTR InstName Cin
SYMATTR Value 330µ
SYMATTR SpiceLine V=26 Irms=3.87 Rser=0.002 Lser=0
SYMBOL Misc\\battery -1232 -192 R0
WINDOW 123 0 0 Left 2
SYMATTR InstName V1
SYMATTR Value {Vin}
SYMATTR SpiceLine Rser=0.100
SYMBOL LM2596xx -592 -224 R0
SYMATTR InstName U1
SYMBOL voltage -1504 -272 R0
SYMATTR InstName V2
SYMATTR Value 5
SYMBOL voltage -1504 -112 R0
SYMATTR InstName V3
SYMATTR Value 5
SYMBOL voltage -864 640 R0
WINDOW 0 43 64 Left 2
WINDOW 123 0 0 Left 0
WINDOW 39 0 0 Left 0
SYMATTR InstName Vfb_comp
SYMATTR Value 1.23
SYMBOL OpAmps\\opamp2 -752 544 R0
SYMATTR InstName U7
SYMATTR Value LMV358
SYMBOL OpAmps\\opamp2 -896 320 R0
SYMATTR InstName U9
SYMATTR Value LMV358
SYMBOL OpAmps\\opamp2 -1232 336 R0
SYMATTR InstName U10
SYMATTR Value LMV358
SYMBOL res -1296 304 R90
WINDOW 0 0 56 VBottom 2
WINDOW 3 38 29 VTop 2
SYMATTR InstName R18
SYMATTR Value 1k
SYMBOL res -1136 208 R90
WINDOW 0 0 56 VBottom 2
WINDOW 3 32 56 VTop 2
SYMATTR InstName R19
SYMATTR Value 1k
SYMBOL res -1296 544 R90
WINDOW 0 -3 73 VBottom 2
WINDOW 3 32 56 VTop 2
SYMATTR InstName R20
SYMATTR Value 5.1k
SYMBOL res -1264 560 R180
WINDOW 0 -50 50 Left 2
WINDOW 3 -54 20 Left 2
SYMATTR InstName R21
SYMATTR Value 5.1k
SYMBOL voltage -1552 560 R0
WINDOW 123 0 0 Left 0
WINDOW 39 0 0 Left 0
SYMATTR InstName Vref
SYMATTR Value PULSE(0 0.1 0 0.0001 0.004 0.004)
SYMBOL OpAmps\\opamp2 -320 528 R0
SYMATTR InstName U11
SYMATTR Value LMV358
SYMBOL res -224 400 R90
WINDOW 0 0 56 VBottom 2
WINDOW 3 32 56 VTop 2
SYMATTR InstName R14
SYMATTR Value 2k
SYMBOL res -352 752 R180
WINDOW 0 -50 50 Left 2
WINDOW 3 -54 20 Left 2
SYMATTR InstName R17
SYMATTR Value 5.1k
SYMBOL res -384 592 R90
WINDOW 0 -3 73 VBottom 2
WINDOW 3 32 56 VTop 2
SYMATTR InstName R22
SYMATTR Value 5.1k
SYMBOL res -528 368 R90
WINDOW 0 0 56 VBottom 2
WINDOW 3 38 29 VTop 2
SYMATTR InstName R23
SYMATTR Value 2k
SYMBOL OpAmps\\opamp2 -64 512 R0
SYMATTR InstName U12
SYMATTR Value LMV358
SYMBOL res 16 -272 R0
SYMATTR InstName R24
SYMATTR Value 12k
SYMBOL res 16 -128 R0
SYMATTR InstName R25
SYMATTR Value 2k
SYMBOL cap 112 -224 R0
SYMATTR InstName C2
SYMATTR Value 5.6n
TEXT 344 400 Left 2 !.tran 4m startup
TEXT -296 -320 Left 2 !.ic I(L1)=0
TEXT 344 336 Left 2 !.inc 1n582x.txt
TEXT 344 432 Left 2 !.options plotwinsize=0
TEXT 344 264 Left 2 !.param VIn=20
TEXT 344 296 Left 2 !.inc LM2596xx.txt
TEXT -1176 -504 Left 3 ;TI LM2596-ADJ Adjustable Output Regulator\nSIMPLE SWITCHER Power Converter 150 KHz 3A Step-Down Voltage Regulator
TEXT -952 -144 Center 2 ;UNREGULATED\nDC INPUT
TEXT -32 -296 Left 2 ;REGULATED OUTPUT
TEXT 344 368 Left 2 !.lib lmv358.mod
TEXT -1304 -384 Left 2 ;BUCK REGULATOR
TEXT -1672 -392 Left 2 ;POWER SUPPLY
TEXT -1680 120 Left 2 ;Proportional control
LINE Normal -960 -256 -960 -176 2
LINE Normal -944 -224 -960 -256 2
LINE Normal -976 -224 -960 -256 2
LINE Normal -960 0 -960 -80 2
LINE Normal -976 -32 -960 0 2
LINE Normal -944 -32 -960 0 2
RECTANGLE Normal 272 80 -1344 -368 2
RECTANGLE Normal -1328 80 -1680 -368 2
RECTANGLE Normal 272 864 -1680 144 2
